resultados/_temp_alt2_1p10/LineSummary.csv
line,maxCurrentA,normAmps,maxLoadingPct,meanLoadingPct,overloadHours
rbt_1607347,92.05755427417326,124.95,73.67551362478851,25.425798607618372,0
sbt_7584,92.05756450329316,163.8,56.20119933045981,19.395322317105762,0
sbt_22840,92.05755981750677,163.8,56.20119646978436,19.39532225996718,0
rbt_630758,31.047537017774545,76.65,40.50559297817944,17.3656063561475,0
rbt_637576,24.664200448872833,61.95,39.81307578510546,14.551074520981862,0
rbt_632607,45.025526721782946,124.95,36.03483531155098,16.97151963814963,0
rbt_606147,25.36822307597504,76.65,33.09618144288981,12.322718743151265,0
rbt_1130761,27.95377832484177,90.3,30.956565143789337,14.572552778096133,0
rbt_637918,17.618900240762702,61.95,28.44051693424165,11.203078332071263,0
rbt_605836,23.721128746085817,90.3,26.26924556598651,12.379073522565927,0
rbt_637360,16.20370559324963,61.95,26.156102652541772,12.28890393406798,0
rbt_1607350,21.81474399529776,90.3,24.158077514172493,8.68943583635164,0
rbt_626476,14.001614944312745,61.95,22.601476907688046,10.634710282335531,0
rbt_606126,13.505750960114351,61.95,21.801050783074015,7.755968107500993,0
rbt_1633671,13.208256035350837,61.95,21.32083298684558,10.04850069418705,0
rbt_3405844,18.649464437173087,90.3,20.65278453729024,7.125538194313883,0
rbt_606143,14.826963523796561,76.65,19.343722796864395,6.841596713469545,0
rbt_1627323,13.78787502241728,76.65,17.988095267341524,8.464081614893503,0
sbt_34378,22.62775385296801,128.1,17.66413259404216,8.66805819925908,0
sbt_34379,22.55710341017418,128.1,17.608980023555176,8.54361383082936,0
rbt_637397,10.770950699021997,61.95,17.386522516581106,8.17317066138584,0
rbt_635862,10.566269491107276,61.95,17.056125086533132,5.858928934541898,0
rbt_3435739,13.053354068173132,76.65,17.02981613590754,8.124310739339107,0
rbt_605816,10.016712207713832,61.95,16.169026969675272,6.110382213671225,0
sbt_24791,25.368244438230583,163.8,15.487328716868486,5.7664010470595235,0
sbt_3174,25.368235536814886,163.8,15.48732328254877,5.766402692150614,0
smt_29422,24.716948619620144,163.8,15.08971222199032,11.937267592159143,0
smt_17184,24.653671494550714,163.8,15.05108149850471,11.887152348216555,0
smt_19119,24.652946546255087,163.8,15.050638917127646,11.886283399838215,0
rbt_609688,10.97688123658565,76.65,14.320784392153488,5.234645353540059,0
rbt_1638954,7.866557021401257,61.95,12.698235708476604,5.96884626602857,0
rbt_1607265,11.06310492388842,90.3,12.25150046942239,5.7667846675021615,0
rbt_606139,9.294637693890785,76.65,12.126076573895347,4.343074020399299,0
rbt_623004,7.128477511618148,61.95,11.506824070408632,4.504934306661766,0
sbt_9361,23.72112880164999,216.3,10.966772446440123,5.1679627008346065,0
sbt_11363,17.796176019810424,163.8,10.864576324670589,4.063944027669633,0
rbt_606121,6.387240102380288,61.95,10.310314935238559,4.844482829945808,0
rbt_1605991,6.113906557703644,61.95,9.869098559650757,4.640285238330283,0
rbt_1607280,6.064549644389505,61.95,9.789426383195327,4.600989880743313,0
smt_24512,15.950602048499391,163.8,9.737852288461166,9.579485895370354,0
smt_19115,15.950549162441861,163.8,9.737820001490757,9.579454593765506,0
smt_29473,15.949074921357754,163.8,9.736919976408885,9.578582006380406,0
smt_29474,15.94719985008919,163.8,9.735775244254693,9.577472176850746,0
smt_6092,15.945327364426484,163.8,9.73463209061446,9.576363883266064,0
smt_19063,15.943656187856538,163.8,9.733611836298252,9.575374745861597,0
smt_6227,15.941728979963427,163.8,9.732435274702947,9.574234073897662,0
smt_6144,15.9397865139009,163.8,9.731249397985897,9.5730843768575,0
smt_6176,15.937778129950567,163.8,9.730023278358098,9.571895670913838,0
smt_6719,15.93588558677826,163.8,9.728867879596006,9.570775533639384,0
smt_6062,15.93386131239135,163.8,9.727632058846977,9.569577435003344,0
smt_6066,15.932067520255389,163.8,9.72653694765286,9.568515756290044,0
smt_19014,15.930444489642813,163.8,9.725546086473024,9.567555149267422,0
smt_19011,15.92850388540878,163.8,9.724361346403406,9.566406588532837,0
smt_29475,15.926545153423858,163.8,9.723165539330804,9.565247304685036,0
smt_6594,15.924838007410514,163.8,9.722123325647445,9.564236927931626,0
smt_29476,15.9228593586443,163.8,9.720915359367705,9.563065867572204,0
smt_19061,15.92089894519785,163.8,9.719718525761813,9.561905605757177,0
smt_6474,15.919294899371428,163.8,9.718739254805511,9.560956262946304,0
smt_37840,15.91765440172517,163.8,9.717737729990946,9.559985350511175,0
smt_13371,15.786069696895478,163.8,9.637405187359876,9.410955943079342,0
smt_21221,15.784316419443234,163.8,9.636334810404906,9.409890359931639,0
smt_13441,15.782581593513685,163.8,9.635275698115802,9.408835992088541,0
smt_857,15.78139631755062,163.8,9.63455208641674,9.408115622513693,0
smt_21217,15.78017528316661,163.8,9.633806644179858,9.4073735206843,0
smt_26396,15.778783342643628,163.8,9.632956863640798,9.406527548337579,0
smt_39969,15.77871167198856,163.8,9.632913108662123,9.406483990631251,0
smt_13847,15.777557340109238,163.8,9.632208388345077,9.405782429298304,0
smt_14513,15.775959377887473,163.8,9.631232831433133,9.404811246261714,0
smt_14288,15.775033245351699,163.8,9.630667426954638,9.39662304398445,0
smt_13787,15.774636471674327,163.8,9.630425196382372,9.404007232952216,0
smt_20815,15.773314515857285,163.8,9.629618141549013,9.395578450495886,0
smt_21165,15.772712556936346,163.8,9.629250645260285,9.402837949985512,0
smt_26394,15.77076980916784,163.8,9.628064596561563,9.401657222331087,0
smt_21157,15.769104612553983,163.8,9.627047993012198,9.393019799026314,0
smt_14041,15.768980512519539,163.8,9.626972229865407,9.400569757509626,0
smt_26393,15.767519563213593,163.8,9.626080319422217,9.399681850271037,0
smt_15145,15.767375265596812,163.8,9.625992225639077,9.391968756290238,0
smt_13284,15.76613825898007,163.8,9.625237032344364,9.398842348830366,0
smt_15288,15.765223854992144,163.8,9.624678788151492,9.390661198073053,0
smt_21164,15.764367439948701,163.8,9.624155946244628,9.397766116776362,0
smt_26388,15.763426581177185,163.8,9.623581551390222,9.389568874009994,0
smt_13919,15.76249413144901,163.8,9.62301229026191,9.396627597005265,0
smt_20997,15.76164210340667,163.8,9.622492126621898,9.388484328188696,0
smt_20813,15.760529656070448,163.8,9.621812976843984,9.395433671042566,0
smt_15035,15.759952769747102,163.8,9.621460787391392,9.387457608767226,0
smt_20814,15.759216963403299,163.8,9.62101157716929,9.394635872094574,0
smt_20816,15.757403565700477,163.8,9.619904496764638,9.38590829139603,0
smt_21162,15.757383059305246,163.8,9.61989197759783,9.393521303851083,0
smt_14255,15.755579393672974,163.8,9.618790838628188,9.384799624645032,0
smt_15189,15.754249112378583,163.8,9.617978701085825,9.383991127844432,0
smt_14349,15.752808903490639,163.8,9.617099452680486,9.383115821701905,0
smt_14630,15.751025235114236,163.8,9.616010522047763,9.382031774454157,0
smt_20817,15.749651609771023,163.8,9.615171922937133,9.381196936940873,0
smt_14608,15.748201744697557,163.8,9.614286779424637,9.380315764436071,0
smt_20862,15.745874022054274,163.8,9.612865703329836,9.378901065234368,0
smt_14261,15.744719645422428,163.8,9.612160955691348,9.378199480817312,0
smt_14274,15.742724158749526,163.8,9.610942709859295,9.37698670410367,0
smt_26385,15.74113053933252,163.8,9.609969804232307,9.376018167131784,0
smt_14298,15.739602382331393,163.8,9.609036863450179,9.375089416407649,0
smt_14732,15.738041471222102,163.8,9.608083926265019,9.374140759845469,0
smt_21153,15.73643644704932,163.8,9.607104058027668,9.373165294199108,0
smt_26478,15.73548101871525,163.8,9.606520768446428,9.423167634945637,0
smt_36207,15.734855087780856,163.8,9.606138637228849,9.37220421190181,0
smt_30311,15.733768545797124,163.8,9.605475302684447,9.42214033578474,0
smt_14872,15.732973083631432,163.8,9.604989672546662,9.371060411681265,0
smt_14452,15.731692455103387,163.8,9.604207848048466,9.420894909315697,0
smt_15028,15.730248929984324,163.8,9.603326575082004,9.355626880475105,0
smt_22508,15.730010822326078,163.8,9.60318121021128,9.419886117664506,0
smt_14970,15.728899802278699,163.8,9.602502931794078,9.347913772223686,0
smt_14113,15.728009019724068,163.8,9.601959108500651,9.418685263828891,0
smt_13747,15.727324518074337,163.8,9.601541219825602,9.346955768844435,0
smt_20865,15.725802332617976,163.8,9.600611924675198,9.34603005824691,0
smt_14544,15.725741222179554,163.8,9.600574616715233,9.417324848406485,0
smt_14193,15.724156690905042,163.8,9.599607259404786,9.345029269361612,0
smt_22453,15.723676740913042,163.8,9.59931424964166,9.416086403920525,0
smt_14225,15.722647613275871,163.8,9.598685966590885,9.344111532175278,0
smt_14754,15.72182545220464,163.8,9.59818403675497,9.41563090423483,0
smt_26474,15.721612131939708,163.8,9.598053804602994,9.414847887332044,0
smt_21108,15.720918001749633,163.8,9.597630037698188,9.343059679799337,0
smt_21229,15.719895194220301,163.8,9.597005613077107,9.413817935021559,0
smt_14780,15.719796909655685,163.8,9.596945610290405,9.414413437335938,0
smt_20866,15.719293806755443,163.8,9.596638465662663,9.342071936775143,0
smt_14729,15.717950612062106,163.8,9.59581844448236,9.412651427706953,0
smt_36206,15.717813770565376,163.8,9.595734902665063,9.341171863680108,0
smt_26472,15.717760564593526,163.8,9.595702420386768,9.413191291922509,0
smt_13702,15.716129179504891,163.8,9.594706458794194,9.34014739290333,0
smt_15243,15.715722218211411,163.8,9.594458008676074,9.411967949718218,0
smt_20867,15.71471114501146,163.8,9.593840747870244,9.339285026996578,0
smt_15568,15.7134148217359,163.8,9.593049341719109,9.407815632487427,0
smt_13866,15.713275835929158,163.8,9.592964490799242,9.338412156431987,0
smt_15581,15.711964861374176,163.8,9.592164140033073,9.406944613011017,0
smt_21107,15.711548839094165,163.8,9.591910158177146,9.337361899366318,0
smt_23196,15.710469934692744,163.8,9.591251486381406,9.406046583667976,0
smt_26355,15.709409594590953,163.8,9.590604148101924,9.336060938986384,0
smt_15622,15.709090192527329,163.8,9.590409152947087,9.405217749860556,0
smt_27620,15.708137825787151,163.8,9.589827732470788,9.333815142749893,0
smt_20868,15.707818070638153,163.8,9.589632521757114,9.3350930703584,0
smt_856,15.707804305645794,163.8,9.589624118220875,9.404445298230348,0
smt_23009,15.706338904808067,163.8,9.588729490114813,9.33419353183061,0
smt_20869,15.706228380592785,163.8,9.58866201501391,9.332653844880731,0
smt_16038,15.705493307196296,163.8,9.58821325225659,9.403057050967293,0
smt_13891,15.704653768398062,163.8,9.58770071330773,9.331696188615991,0
smt_21104,15.703004341460526,163.8,9.586693737155388,9.330693031906529,0
smt_23147,15.701681364486122,163.8,9.585886058904835,9.400802031377058,0
smt_13932,15.700781499419328,163.8,9.58533669073219,9.329341133986656,0
smt_14054,15.698772255528105,163.8,9.584110046109954,9.328119144470685,0
smt_26351,15.696771159216272,163.8,9.58288837558991,9.326902111354698,0
smt_14864,15.6947906143685,163.8,9.581679251751222,9.325697578501044,0
smt_21052,15.693151899975106,163.8,9.580678815613618,9.324700941886041,0
smt_13717,15.691910255795747,163.8,9.579920791084094,9.394429269352626,0
smt_26348,15.691534295196877,163.8,9.57969126690896,9.323717144527945,0
smt_20807,15.690572200682587,163.8,9.579103907620626,9.393625090728408,0
smt_14369,15.690057710701227,163.8,9.578789811172909,9.322819113749,0
smt_23095,15.688893663310076,163.8,9.57807915952996,9.39261628306438,0
smt_20870,15.688437372626748,163.8,9.577800593789222,9.321833655561733,0
smt_20808,15.688098177811932,163.8,9.577593515147699,9.392138194110089,0
smt_21053,15.687046111127453,163.8,9.576951227794538,9.320987517813737,0
smt_26469,15.686522011293972,163.8,9.576631264526233,9.391190915759706,0
smt_26347,15.68530622082539,163.8,9.575889023702924,9.319929351814778,0
smt_13955,15.685018374550152,163.8,9.575713293376161,9.390287230302853,0
smt_14536,15.68363258123468,163.8,9.574867265711037,9.318911479022328,0
smt_14437,15.68329975210803,163.8,9.574664073326025,9.389254341378605,0
smt_14549,15.681611799955466,163.8,9.573633577506389,9.317682482922757,0
smt_13280,15.681605302072823,163.8,9.57362961054507,9.388235983029096,0
smt_21056,15.680129437459472,163.8,9.572728594297601,9.316780942394114,0
smt_21226,15.67992665594622,163.8,9.572604796059963,9.387227125771314,0
smt_15181,15.67879849543547,163.8,9.571916053379407,9.315971492988835,0
smt_13930,15.678165396501841,163.8,9.57152954609392,9.386168621494527,0
smt_21055,15.677469741118966,163.8,9.571104848057976,9.315163374693464,0
smt_20871,15.676056309527798,163.8,9.570241947208666,9.322027553933284,0
smt_21225,15.675866461366704,163.8,9.570126044790417,9.384786982885572,0
smt_14721,15.6747319283072,163.8,9.569433411664956,9.321221912988007,0
smt_13546,15.67355438042809,163.8,9.568714517965866,9.383397449332904,0
smt_14748,15.673113092820243,163.8,9.568445111611869,9.320237151774686,0
smt_26346,15.671520035713824,163.8,9.567472549275838,9.319268072799659,0
smt_14761,15.669759345809089,163.8,9.566397647014096,9.318197021426727,0
smt_14786,15.668014079197308,163.8,9.565332160682116,9.317135353195173,0
smt_21100,15.6662963064714,163.8,9.56428345938425,9.316090410800053,0
smt_21054,15.664590342437823,163.8,9.563241967300257,9.31505265272281,0
smt_13752,15.658951320882089,163.8,9.559799341197856,9.372779263878586,0
smt_14823,15.65891519456107,163.8,9.559777286056818,9.37275754792707,0
smt_23041,15.657164050712893,163.8,9.558708211668431,9.371704883458323,0
smt_14797,15.655434524665255,163.8,9.557652334960473,9.370665217206424,0
smt_26430,15.652932278365743,163.8,9.556124712066998,9.369452133042257,0
smt_26429,15.651211367658144,163.8,9.55507409502939,9.368417543958252,0
smt_20810,15.649480451892847,163.8,9.554017369897952,9.367376943020876,0
smt_26425,15.64773730670598,163.8,9.55295317869718,9.366328993056959,0
smt_14845,15.645670036194007,163.8,9.55169110878755,9.365086188332514,0
smt_21220,15.643592548825097,163.8,9.550422801480522,9.363837245824278,0
smt_23225,15.641588640742553,163.8,9.549199414372742,9.36263254185757,0
smt_14674,15.637112368517016,163.8,9.546466647446286,9.360216758096689,0
smt_15154,15.635127394093269,163.8,9.54525481934876,9.359023449705898,0
smt_20812,15.633472246826882,163.8,9.54424435093216,9.358028426760688,0
smt_26427,15.631719176084536,163.8,9.543174100173708,9.356974538277841,0
smt_23277,15.629972000790675,163.8,9.542107448590155,9.355924197097876,0
smt_14301,15.6283160859169,163.8,9.541096511548778,9.35492872134781,0
smt_21222,15.62655761330315,163.8,9.540022962944535,9.353871594702037,0
sbt_34393,12.194955441848219,128.1,9.51987153930384,6.258851355860383,0
smt_21101,15.5397631216506,163.8,9.487034872802564,9.296017860876102,0
smt_14960,15.537384146693546,163.8,9.485582507138917,9.29456984980521,0
smt_21103,15.535942553963512,163.8,9.484702413897137,9.293692395506275,0
smt_14563,15.53421387032118,163.8,9.483647051478131,9.292640197784564,0
smt_26349,15.532441678993251,163.8,9.482565127590508,9.291561518485315,0
smt_26350,15.531021584194901,163.8,9.481698158849145,9.29069714984603,0
smt_17100,15.529136187146626,163.8,9.480547122800138,9.289549566039048,0
smt_14503,15.527038651538584,163.8,9.47926657603088,9.284209544846027,0
smt_15080,15.526817979013119,163.8,9.479131855319364,9.288138543637814,0
smt_26354,15.525279031008647,163.8,9.478192326623105,9.283138502940902,0
smt_20875,15.524474966721755,163.8,9.477701444885076,9.286712424050776,0
smt_27622,15.523712201003491,163.8,9.477235775948406,9.28241618108607,0
smt_14517,15.523232049230815,163.8,9.476942642998056,9.285955898531673,0
smt_21109,15.522341533437746,163.8,9.476398982562726,9.281581877626442,0
smt_21110,15.521029253654275,163.8,9.475597834953769,9.280783113871232,0
smt_14778,15.52097996273602,163.8,9.475567742818082,9.28458512326218,0
smt_14066,15.519310041590478,163.8,9.474548254939242,9.279736656950183,0
smt_14909,15.518986101876246,163.8,9.474350489545937,9.283371522150626,0
smt_21111,15.517308149144512,163.8,9.473326098378822,9.278518137001562,0
smt_14146,15.515374419627195,163.8,9.472145555327957,9.27734110679333,0
smt_26356,15.513513693180933,163.8,9.471009580696538,9.27620851233581,0
smt_14607,15.51163337763807,163.8,9.469861646909688,9.27506399432072,0
smt_15188,15.509991809701475,163.8,9.468859468682219,9.274064798124948,0
smt_14159,15.5086185153773,163.8,9.468021071658912,9.27322889580576,0
smt_14181,15.507220674468654,163.8,9.467167688930802,9.27237805237653,0
smt_14620,15.50551559246004,163.8,9.46612673532359,9.271340196172465,0
smt_20876,15.503566526323713,163.8,9.464936829257455,9.27015383072782,0
smt_26384,15.501544208321274,163.8,9.46370220288234,9.268922878012546,0
smt_14740,15.499121717849278,163.8,9.462223270970254,9.267448346694454,0
smt_36560,15.347891229482958,163.8,9.369896965496311,9.206357828384016,0
smt_26391,15.346955621824579,163.8,9.369325776449681,9.217802789802333,0
smt_14427,15.346096860506343,163.8,9.368801502140624,9.205264487343635,0
smt_21161,15.3452963104268,163.8,9.368312765828327,9.216791402417858,0
smt_36562,15.34475930568614,163.8,9.367984924106311,9.20444948986542,0
smt_36563,15.344716790917039,163.8,9.36795896881382,9.204423586482799,0
smt_36561,15.344688837773257,163.8,9.367941903402475,9.204406553975867,0
smt_13545,15.344265465308098,163.8,9.367683434254028,9.20105466311474,0
smt_14907,15.34341478417647,163.8,9.367164092903828,9.215644570732543,0
smt_20926,15.343120173507753,163.8,9.366984232910715,9.203450740099637,0
smt_21154,15.342642763966335,163.8,9.36669277409422,9.200065922639583,0
smt_26390,15.341730079245195,163.8,9.366135579514772,9.214617706560434,0
smt_14247,15.341122614076703,163.8,9.365764721658548,9.202233594039557,0
smt_16842,15.340677192765847,163.8,9.365492791676342,9.198868266505984,0
smt_14065,15.339957360951862,163.8,9.365053333914446,9.213537196798226,0
smt_14040,15.338962025167003,163.8,9.364445680810135,9.200917112617413,0
smt_16817,15.3381922773121,163.8,9.363975749274786,9.197354166465846,0
smt_27624,15.338066036844836,163.8,9.363898679392452,9.212384394903195,0
smt_23120,15.337205423751648,163.8,9.363373274573656,9.205618613118302,0
smt_14587,15.336539076153123,163.8,9.36296646895795,9.196346844573746,0
smt_23173,15.336418902848665,163.8,9.362893103082213,9.211380432469868,0
smt_15289,15.335375185929728,163.8,9.362255913266011,9.204503274136863,0
smt_14588,15.334451097631437,163.8,9.361691756795748,9.195074606948364,0
smt_14163,15.334055847899215,163.8,9.361450456592927,9.203699275688217,0
smt_20927,15.332670315085062,163.8,9.360604587964017,9.202854938944997,0
smt_16855,15.33229255062294,163.8,9.360373962529266,9.193759372004628,0
smt_26392,15.331366415463702,163.8,9.359808556449146,9.202060349469283,0
smt_26387,15.330231763894066,163.8,9.359115850973177,9.192503704993294,0
smt_14735,15.32969078769843,163.8,9.358785584675475,9.201039231426568,0
smt_27623,15.328751014262766,163.8,9.35821185241927,9.19160146365381,0
smt_26389,15.327360680901265,163.8,9.357363053053275,9.190754314675173,0
rbt_635543,5.788646950549974,61.95,9.344062874172678,3.7164809472027236,0
smt_3613,15.15620636205245,163.8,9.252873236906256,9.165331336522593,0
smt_14937,15.153756597631848,163.8,9.251377654231895,9.16384347739514,0
smt_15269,15.15157556629017,163.8,9.250046133266281,9.162518833301379,0
rbt_606114,8.28524410660554,90.3,9.175242642974018,4.312913527291098,0
rbt_627337,8.06666911571657,90.3,8.933188389497863,4.200995674134469,0
rbt_1621994,7.908635560641075,90.3,8.758178915438622,4.115844789265769,0
smt_34714,24.67552144752814,286.65,8.608240518935336,6.807645304867052,0
smt_34721,24.67550765627058,286.65,8.608235707751815,6.807635829878175,0
smt_34712,24.675499022441986,286.65,8.608232695776028,6.807629896988797,0
smt_34720,24.675245907797045,286.65,8.608144394835879,6.807456000233532,0
smt_34711,24.674893144577997,286.65,8.608021330744114,6.807213645671614,0
smt_34719,24.674510744034542,286.65,8.607887927449692,6.806950934405731,0
smt_34710,24.6741753401279,286.65,8.607770919284109,6.806720514119275,0
smt_34718,24.673838832760907,286.65,8.607653526168118,6.80648933954521,0
smt_34709,24.67351707495727,286.65,8.607541278547801,6.806268301184704,0
smt_34708,24.673188036806945,286.65,8.607426491124,6.80604226513438,0
smt_34707,24.672597340140335,286.65,8.607220422166522,6.805636489067499,0
smt_34706,24.67213957618245,286.65,8.607060727780377,6.805322038575409,0
smt_34717,24.67164822298272,286.65,8.606889315535573,6.804984522476775,0
smt_34705,24.671230880864403,286.65,8.606743722610991,6.804697851806563,0
smt_34716,24.670818663013442,286.65,8.606599917325465,6.804414706619099,0
smt_34704,24.6704727027956,286.65,8.606479226511635,6.804177077237935,0
smt_34703,24.670128591100354,286.65,8.606359180568763,6.803940721420766,0
smt_34702,24.669577979080625,286.65,8.606167095440652,6.803562537522587,0
smt_34715,24.669119925815636,286.65,8.606007300127555,6.803247934792419,0
smt_34701,24.668785506553174,286.65,8.605890635462472,6.803018251494947,0
smt_34700,24.6684478504815,286.65,8.605772841612245,6.802786348869264,0
smt_34713,24.668052975344548,286.65,8.605635086462428,6.802515153114482,0
rbt_626678,7.746671857633708,90.3,8.57881711808827,4.035359665741942,0
rbt_606150,5.258685270288852,61.95,8.488596077948106,3.987838238028759,0
rbt_1607272,7.569564554085689,90.3,8.382684998987475,3.944274872754024,0
rbt_623007,5.175082060187611,61.95,8.35364335784925,3.9250463942019547,0
sbt_22748,17.92232640249965,216.3,8.285865188395585,3.89940554374982,0
sbt_7427,17.922318038185676,216.3,8.285861321398832,3.899401549658038,0
sbt_34383,10.597470761562247,128.1,8.272810898955697,4.873916548247611,0
sbt_34392,10.597467583929715,128.1,8.272808418368239,5.18716177034607,0
sbt_34384,10.583790033072564,128.1,8.262131173358753,3.991377087931942,0
rbt_1630759,6.26630968594972,76.65,8.175224639203808,3.8459643581156637,0
rbt_606122,5.057410723494466,61.95,8.163697697327628,3.837303633446403,0
rbt_1229546,7.345361192474355,90.3,8.134397776826528,3.8258313389106355,0
rbt_1638606,5.00512797143786,61.95,8.079302617333106,3.7988455266635683,0
rbt_605905,7.164860892827393,90.3,7.934508186962784,3.730055865378645,0
smt_24122,25.987720564598213,327.6,7.932759635103238,6.172805181964514,0
smt_18806,25.98771103680021,327.6,7.932756726739991,6.172798975865099,0
smt_10381,25.98764347494921,327.6,7.932736103464349,6.172754945836217,0
smt_18545,25.987435880415184,327.6,7.93267273516947,6.172619658950722,0
smt_23134,25.987024911007026,327.6,7.932547286632182,6.172351842944457,0
smt_4527,25.986636965159953,327.6,7.93242886604394,6.172099040504538,0
smt_4627,25.986204232608152,327.6,7.932296774300412,6.171817222743208,0
smt_4591,25.98593801774546,327.6,7.932215512132314,6.171644100663396,0
smt_4693,25.98560516320862,327.6,7.9321139081833385,6.17142764863758,0
smt_4863,25.98529148717438,327.6,7.932018158478137,6.171223674632949,0
smt_4387,25.98494821812898,327.6,7.9319133754972455,6.171000464328395,0
smt_31415,25.98453900699944,327.6,7.931788463675042,6.17073438506666,0
smt_31414,25.9841843155532,327.6,7.931680194002808,6.170503764500921,0
smt_31413,25.98396861483252,327.6,7.931614351291977,6.1703635195564495,0
smt_31412,25.98388348502955,327.6,7.931588365393635,6.170308170651879,0
smt_31411,25.98377020153715,327.6,7.9315537855730005,6.1702345167979855,0
smt_31416,25.983749556886256,327.6,7.931547483787013,6.170221094605434,0
smt_31417,25.983734218762265,327.6,7.931542801819982,6.170211121146106,0
smt_31408,25.97418404681627,327.6,7.928627608918275,6.168345525322682,0
smt_31407,25.973816990796912,327.6,7.928515564956322,6.160972471746483,0
smt_6830,25.97337418307939,327.6,7.92838039776538,6.160684058902899,0
smt_6842,25.972651016778794,327.6,7.928159651031377,6.160213068076245,0
smt_7020,25.97204963843144,327.6,7.9279760801072765,6.159821422076464,0
smt_22791,25.97165316868541,327.6,7.927855057596278,6.159563235037473,0
smt_7012,25.971137847785496,327.6,7.927697755734278,6.159227665481374,0
smt_6826,25.970696345012474,327.6,7.927562986878043,6.158940178795242,0
smt_17964,25.970203587674444,327.6,7.927412572550196,6.158619332277492,0
smt_17962,25.956543007530595,327.6,7.923242676291389,6.1556865457412036,0
smt_29388,25.956128256536275,327.6,7.9231160734237704,6.155416421080652,0
smt_17961,25.955635192057617,327.6,7.922965565341153,6.155095305832983,0
smt_19163,25.955233967584743,327.6,7.922843091448334,6.154834014180326,0
smt_29389,25.954886046164045,327.6,7.922736888328464,6.15460744373835,0
smt_17795,25.954340087471806,327.6,7.922570234271002,6.154251924752439,0
smt_22739,25.95370638572631,327.6,7.922376796619752,6.153839293079031,0
smt_29420,25.953138263993758,327.6,7.92220337728747,6.153469385420819,0
smt_17794,25.952965944988147,327.6,7.922150776858408,6.153357191506653,0
smt_18202,25.95267106218657,327.6,7.922060763793214,6.153165202906764,0
smt_10747,25.952193769664497,327.6,7.921915070105157,6.1528544651183905,0
smt_17776,25.951679351497052,327.6,7.921758043802518,6.152519573310072,0
smt_29390,25.95108688879066,327.6,7.921577194380543,6.152133894784151,0
rbt_1607283,7.098810598249864,90.3,7.861362788759539,3.698796787835551,0
smt_12228,24.77062359821268,327.6,7.561240414594835,5.980139145353348,0
smt_24626,24.770232955888222,327.6,7.56112117090605,5.979903653277855,0
smt_6431,24.769801560542472,327.6,7.5609894873450765,5.979643598873886,0
smt_6957,24.769404768962964,327.6,7.560868366594311,5.979404409084577,0
smt_24627,24.768927940500774,327.6,7.560722814560675,5.979116978221885,0
smt_24628,24.768544773712676,327.6,7.560605852781646,5.978886010884974,0
smt_24629,24.768135152877836,327.6,7.560480815896775,5.978639102080453,0
smt_24630,24.7675833885445,327.6,7.560312389665598,5.9783065204071475,0
smt_6627,24.767169507810248,327.6,7.56018605244513,5.978057055141683,0
smt_6447,24.766498695476383,327.6,7.559981286775452,5.977652735533255,0
smt_6527,24.719665999455696,327.6,7.545685592019442,5.9702676378078925,0
smt_24631,24.71925281794775,327.6,7.54555946823802,5.970019196851962,0
smt_1873,24.71880483044434,327.6,7.545422719915855,5.969749832663278,0
smt_24632,24.718373596696445,327.6,7.545291085682675,5.9694905473793085,0
smt_24633,24.71789230661353,327.6,7.5451441717379515,5.969201170944127,0
smt_24634,24.717403264793695,327.6,7.544994891573166,5.968907140313076,0
smt_6535,24.716147307649134,327.6,7.544611510271408,5.968152046587087,0
smt_6544,24.715674348443375,327.6,7.544467139329479,5.967867714737488,0
smt_19172,24.71509134810869,327.6,7.544289178299356,5.967517237127486,0
smt_19173,24.714696892112055,327.6,7.544168770485975,5.967280110357675,0
smt_6686,24.71433537788108,327.6,7.544058418156618,5.967062790238021,0
smt_19174,24.713265424936214,327.6,7.543731814693594,5.966419620903166,0
smt_24636,24.712629084768608,327.6,7.543537571663189,5.966037119221975,0
smt_24637,24.712089632403615,327.6,7.543372903664107,5.965712864979916,0
smt_24635,24.711497089850845,327.6,7.543192029869,5.96535670835603,0
smt_24665,24.710891115178235,327.6,7.543007055915211,5.964992487897361,0
smt_6737,24.71030543445186,327.6,7.542828276694707,5.964640474612751,0
smt_22843,24.709738470516747,327.6,7.542655210780447,5.964299719550168,0
smt_19223,24.709303353436358,327.6,7.542522391158839,5.964038212618373,0
smt_6510,24.70880446192422,327.6,7.5423701043724725,5.963738383304315,0
smt_24666,24.681252291625206,327.6,7.53395979597839,5.960135198863277,0
smt_6687,24.6808189559238,327.6,7.53382752012326,5.959874634475681,0
smt_22844,24.680458650853847,327.6,7.5337175368906735,5.959657987038832,0
smt_19220,24.6799780272185,327.6,7.533570826379273,5.959368998802069,0
smt_6683,24.679540603927737,327.6,7.533437302786244,5.959105991046466,0
smt_24667,24.678911596459212,327.6,7.533245298064473,5.958727799037471,0
smt_6502,24.67813633051979,327.6,7.5330086478998135,5.958261682987818,0
rbt_605822,6.802249999288118,90.3,7.532945735645756,3.546276883123929,0
smt_19218,24.677847970507695,327.6,7.532920625918099,5.9580883151977355,0
smt_29393,24.677296149575554,327.6,7.53275218241012,5.957756555538766,0
smt_24668,24.675710170153245,327.6,7.53226806170734,5.956803094793114,0
smt_6394,24.66788627042252,327.6,7.5298798139262875,5.952100580684505,0
smt_24450,24.667429624689564,327.6,7.529740422676912,5.951826171700229,0
rbt_1107340,6.79927609103077,90.3,7.529652371019679,3.5442450771197485,0
smt_24451,24.666947035347388,327.6,7.529593112132901,5.9515361786604295,0
smt_24452,24.666505889415586,327.6,7.529458452202559,5.951271095014036,0
smt_24453,24.666038853906205,327.6,7.529315889470759,5.95099046000966,0
smt_6993,24.66550593679901,327.6,7.529153216361115,5.950670828899406,0
smt_17113,24.664817355391705,327.6,7.528943026676344,5.950257924373485,0
smt_19165,24.66368240069056,327.6,7.528596581407375,5.949577382500099,0
smt_24454,24.66316503014584,327.6,7.528438653890671,5.9492671683896985,0
smt_24455,24.662670181592947,327.6,7.528287601218849,5.948970465128615,0
smt_24456,24.662221988223184,327.6,7.528150790055917,5.948701741465573,0
smt_24457,24.661754790417266,327.6,7.528008177783048,5.9484216291849625,0
smt_24458,24.661299668900547,327.6,7.527869251801143,5.948148762994578,0
smt_24459,24.660804690830247,327.6,7.527718159594092,5.947852007443455,0
smt_24505,24.660312757498225,327.6,7.527567996794329,5.947557084070471,0
smt_24506,24.659904321479218,327.6,7.527443321574852,5.947312223908863,0
smt_24507,24.659428279196323,327.6,7.527298009522687,5.947026839115548,0
smt_29445,24.658966941820072,327.6,7.527157186147762,5.946750275773948,0
smt_6650,24.658503999821644,327.6,7.527015872961429,5.946472756373001,0
smt_6653,24.658053958508734,327.6,7.526878497713288,5.946202976205817,0
smt_6140,24.65759514239656,327.6,7.526738443954993,5.945927941702014,0
smt_6420,24.657129466605827,327.6,7.526596296277724,5.945648801112637,0
smt_6426,24.656641218903225,327.6,7.526447258517467,5.945356136628075,0
smt_24508,24.656189357725477,327.6,7.526309327755029,5.945085288746827,0
smt_24509,24.655746130014492,327.6,7.526174032360955,5.944819621329664,0
smt_24510,24.65525443312966,327.6,7.526023941736771,5.9445249081239835,0
smt_6389,24.654693453222205,327.6,7.52585270244878,5.9441886774615815,0
smt_32671,24.65467547849273,327.6,7.52584721565712,5.944177902688388,0
smt_29446,24.65414956919746,327.6,7.525686681684205,5.943862700128679,0
smt_24511,24.653655999244137,327.6,7.525536019305291,5.943566887158432,0
rbt_1607287,6.790265128376766,90.3,7.519673453351901,3.5375363044157226,0
rbt_1626486,6.786900100326973,90.3,7.5159469549578874,3.531917056083058,0
smt_37838,15.98962492263171,216.3,7.3923369961311645,7.272636836672878,0
smt_37842,15.98850192796272,216.3,7.3918178122804985,7.27212929517331,0
smt_37843,15.98780320579587,216.3,7.391494778453938,7.271813505758554,0
smt_38001,15.98645185182615,216.3,7.3908700193371,7.271202758661931,0
smt_38002,15.986397546232473,216.3,7.390844912728836,7.27117821519619,0
smt_38000,15.986370845567302,216.3,7.390832568454601,7.271166148056905,0
smt_37845,15.985130799307225,216.3,7.390259269212771,7.270605708327253,0
smt_37846,15.983667459501168,216.3,7.389582736708815,7.269944352697867,0
smt_37847,15.982295489619267,216.3,7.38894844642592,7.269324293350898,0
smt_37848,15.981290897934239,216.3,7.388484002743521,7.268870271027342,0
smt_37831,15.980777769999602,216.3,7.388246773000278,7.2560069081538385,0
smt_37858,15.980084536492438,216.3,7.387926276695532,7.2556934648911735,0
smt_37849,15.979862379850267,216.3,7.387823569047742,7.268224657869575,0
smt_37859,15.978628293839149,216.3,7.3872530253532815,7.255035030934227,0
smt_37850,15.978429407009536,216.3,7.387161075825027,7.267577033206546,0
smt_37860,15.97757567772391,216.3,7.386766378975455,7.254559096200624,0
smt_37851,15.977046745707755,216.3,7.386521842675799,7.266952148327234,0
smt_37861,15.976163675578396,216.3,7.386113580942393,7.253920668481025,0
smt_37852,15.975659295024235,216.3,7.385880395295532,7.266325100616435,0
smt_37862,15.974825418317497,216.3,7.385494876707117,7.2533155856889415,0
smt_37853,15.974326220803661,216.3,7.385264087287869,7.265722629529954,0
smt_37863,15.9737205462977,216.3,7.384984071335044,7.2528160274044415,0
smt_37864,15.973051884050797,216.3,7.384674934836244,7.252513698068945,0
smt_37854,15.972911779730339,216.3,7.384610161687627,7.265083387114587,0
smt_37923,15.972382700655393,216.3,7.384365557399626,7.252211133543084,0
smt_37855,15.97153464217935,216.3,7.383973482283563,7.264461005387279,0
smt_37924,15.970970821181117,216.3,7.383712816080035,7.251572767725463,0
smt_37856,15.970039101795578,216.3,7.383282062781127,7.263785114684414,0
smt_37925,15.969539413643831,216.3,7.383051046529741,7.250925574269769,0
smt_37932,15.95018526791236,216.3,7.37410322141117,7.239845576747851,0
smt_37933,15.948834854607167,216.3,7.373478897183156,7.239234883277035,0
smt_37934,15.947485742219927,216.3,7.372855174396636,7.238624779748353,0
smt_37935,15.946145043937722,216.3,7.3722353416263156,7.238018482791488,0
smt_37936,15.944918945280788,216.3,7.371668490652236,7.237464012070947,0
smt_37937,15.94356425823723,216.3,7.371042190585866,7.23685139213267,0
smt_37938,15.942211041549006,216.3,7.370416570295426,7.236239438734882,0
smt_37939,15.940835074886559,216.3,7.369780432217548,7.235617198975299,0
smt_37940,15.939475821456165,216.3,7.369152021015332,7.235002518860451,0
smt_37941,15.938145478992539,216.3,7.368536975955865,7.2344009143928,0
smt_37942,15.936843373403859,216.3,7.367934985392445,7.233812080626685,0
smt_37943,15.935529868023586,216.3,7.367327724467677,7.233218093216551,0
smt_37944,15.934205978150677,216.3,7.366715662575441,7.232619411301825,0
smt_37945,15.933080927986055,216.3,7.366195528426285,7.232110648723512,0
smt_37873,15.932120514571665,216.3,7.365751509279549,7.231676337969474,0
smt_37874,15.930773959098222,216.3,7.365128968607591,7.231067410324605,0
smt_37875,15.929324336168348,216.3,7.3644587777015005,7.230411876206034,0
smt_37876,15.927832800357562,216.3,7.363769209596653,7.229737390541016,0
smt_37877,15.926348146551684,216.3,7.363082823186169,7.22906601890881,0
smt_37878,15.924871222903267,216.3,7.362400010588657,7.228398144836784,0
smt_37879,15.923447446073498,216.3,7.361741768873554,7.22775430586895,0
smt_37880,15.92193480858027,216.3,7.36104244502093,7.227070285606318,0
smt_37881,15.920563785157578,216.3,7.36040859230586,7.2264503054699105,0
smt_37882,15.919106270929365,216.3,7.359734753088009,7.225791215774165,0
smt_37883,15.91767106705235,216.3,7.359071228410702,7.225142216612345,0
smt_37841,15.916331099638619,216.3,7.358451733536116,7.239007468726617,0
smt_37884,15.916187665734828,216.3,7.3583854210516995,7.22447142451957,0
smt_37837,15.915490241874288,216.3,7.358062987459217,7.238630607504324,0
smt_37885,15.914748440561223,216.3,7.357720037245133,7.223820610574916,0
smt_37886,15.913314917982426,216.3,7.357057289867049,7.2231723771752785,0
smt_37887,15.911896761415925,216.3,7.35640164651684,7.222531093925707,0
smt_37888,15.910425823553854,216.3,7.3557216012731645,7.221865945107548,0
smt_37889,15.909475791519753,216.3,7.355282381654995,7.221436347624952,0
smt_37890,15.908483857940352,216.3,7.354823790078758,7.2209878034244035,0
smt_37891,15.90651126391495,216.3,7.353911818730905,7.220095815146251,0
smt_37892,15.905052471387982,216.3,7.353237388528886,7.219436165187912,0
smt_37893,15.903681448059851,216.3,7.3526035358575355,7.218816205162155,0
smt_37894,15.902260856490107,216.3,7.351946766754557,7.218173832727938,0
smt_37895,15.900900743223092,216.3,7.3513179580319425,7.217558809402829,0
smt_37896,15.89946358694753,216.3,7.350653530720078,7.216908950062432,0
smt_37897,15.898003984705387,216.3,7.349978726169851,7.216248942900865,0
smt_37898,15.896644041402801,216.3,7.349349996025335,7.2156340014112645,0
smt_37903,15.896169909934688,216.3,7.349130795161668,7.207474714972225,0
smt_37904,15.895116859018568,216.3,7.348643947766329,7.206998989967122,0
smt_37905,15.893727162223897,216.3,7.348001461962042,7.206371183817118,0
smt_37906,15.892342499032472,216.3,7.34736130329749,7.205745653402626,0
smt_40683,15.890856142119963,216.3,7.3466741295053,7.205074184172897,0
smt_37908,15.889422662711567,216.3,7.34601140208579,7.204426604563469,0
smt_37909,15.887881537354644,216.3,7.345298907699789,7.203730397619161,0
smt_37910,15.886408732288235,216.3,7.344617999208615,7.203065056526689,0
smt_37911,15.884907351431126,216.3,7.343923879533576,7.202386808631732,0
smt_40685,15.884819893653969,216.3,7.343883445979643,7.202347299636803,0
smt_37912,15.883427400706715,216.3,7.343239667455716,7.201718243514654,0
smt_37913,15.881952535329319,216.3,7.342557806439815,7.201051977729981,0
smt_37914,15.88043076057283,216.3,7.3418542582398665,7.20036452288348,0
smt_37915,15.878985639947313,216.3,7.341186148842955,7.199711698178725,0
smt_37916,15.877882493550725,216.3,7.340676141262471,7.199213359598557,0
smt_37917,15.876398392358654,216.3,7.339990010336872,7.198542929157544,0
smt_37918,15.874894874405683,216.3,7.339294902637857,7.1978637293904635,0
smt_37919,15.873436617761483,216.3,7.338620720185614,7.197204978014476,0
smt_37920,15.871913276094853,216.3,7.337916447570436,7.19651682724085,0
smt_37993,15.870362531834896,216.3,7.337199506165,7.195816299889106,0
smt_37987,15.869723979578295,216.3,7.33690429014253,7.195527843349951,0
smt_37986,15.868447348849113,216.3,7.336314077137823,7.1949511454448105,0
rbt_606132,4.537452429234467,61.95,7.324378416843367,3.441436235456647,0
smt_37948,15.84027071131015,216.3,7.32328743010178,7.182900067612382,0
smt_37947,15.838544397080156,216.3,7.322489319038445,7.182118972195533,0
smt_37985,15.836865745108822,216.3,7.321713243231078,7.181359444757589,0
smt_37984,15.83503203115028,216.3,7.32086547903388,7.180529760441169,0
smt_37983,15.833169499061365,216.3,7.32000439161413,7.179687040046319,0
smt_37963,15.831277804099079,216.3,7.319129821589958,7.17883112775402,0
smt_37959,15.802612093434517,216.3,7.305877065850447,7.167449962943401,0
smt_37958,15.800723752978811,216.3,7.30500404668461,7.166592958688416,0
smt_37957,15.798800595479431,216.3,7.304114930873523,7.165720156095997,0
smt_37956,15.796915279735568,216.3,7.303243310095038,7.164864530547811,0
smt_37962,15.795748222148491,216.3,7.302703755038599,7.163262983721605,0
smt_37955,15.795021011458008,216.3,7.3023675503735594,7.164004844987001,0
smt_37960,15.794048902931598,216.3,7.301918124332685,7.16249355329537,0
smt_37954,15.793420902465959,216.3,7.30162778662319,7.163278661605293,0
smt_37953,15.789361075870014,216.3,7.299750844137777,7.161722312827847,0
smt_37952,15.787530459664803,216.3,7.2989045120965335,7.160891333259536,0
smt_37951,15.785631990889915,216.3,7.298026810397556,7.160029555976358,0
smt_37981,15.784091110647546,216.3,7.297314429333124,7.159330102065127,0
smt_37980,15.773202406390405,216.3,7.2922803543182635,7.154955883725847,0
smt_37979,15.77201569708592,216.3,7.291731713863116,7.154417203079279,0
smt_37978,15.77040106016785,216.3,7.2909852335496295,7.153684275984836,0
smt_37977,15.76857809655502,216.3,7.290142439461405,7.1528567864667245,0
smt_37976,15.766937585482271,216.3,7.289383996986717,7.15211211912107,0
smt_37975,15.765215595086163,216.3,7.288587884921943,7.15133046878395,0
smt_37990,15.763471379150582,216.3,7.287781497526852,7.150538732294311,0
smt_37974,15.761861281832713,216.3,7.287037115965194,7.149807877311143,0
smt_37991,15.760122176559815,216.3,7.286233091336021,7.14901846548367,0
smt_37973,15.759102959983325,216.3,7.285761886261362,7.148555825522227,0
smt_37989,15.753358390998594,216.3,7.283106052241606,7.14325587942447,0
smt_37969,15.750320226880278,216.3,7.281701445621949,7.1427323851398326,0
smt_37972,15.74909553722251,216.3,7.281135246057563,7.141320365466921,0
smt_37968,15.74899907191678,216.3,7.281090648135358,7.142132185537616,0
smt_37971,15.747367383084622,216.3,7.280336284366445,7.140535715479793,0
smt_37967,15.747283421136428,216.3,7.2802974670071325,7.141352768883166,0
smt_37970,15.746157811281709,216.3,7.279777074101576,7.1399865237056295,0
smt_37966,15.74553751207593,216.3,7.27949029684509,7.140559608350499,0
smt_37996,15.743836862000826,216.3,7.278704050855675,7.1397870111976784,0
smt_37995,15.742447264530766,216.3,7.2780616109712275,7.139155726145336,0
smt_37994,15.742418901572865,216.3,7.278048498184403,7.13914284066358,0
smt_37965,15.7424054310929,216.3,7.278042270500647,7.139136720571904,0
rbt_623433,6.571146830981271,90.3,7.277017531540721,3.424181910831816,0
smt_37964,15.73635052072982,216.3,7.275242959190854,7.136386029161444,0
rbt_626698,6.526433324242601,90.3,7.227500912782505,3.3970437850268205,0
rbt_1607252,5.501492849433231,76.65,7.17742054720578,3.3756750214965234,0
rbt_637356,4.300113458391952,61.95,6.941264662456742,3.2630639402154586,0
rbt_631391,6.185507232380677,90.3,6.849952638295323,5.187880260402363,0
rbt_605855,5.110349539349822,76.65,6.667122686692527,3.1368266481325136,0
rbt_1607255,5.960634909716297,90.3,6.600924595477626,3.103127202424258,0
rbt_636933,4.959377788439365,76.65,6.470160193658662,3.044594701583304,0
rbt_605910,3.896116440289955,61.95,6.289130654221073,2.954395967134095,0
rbt_627343,5.641055008285622,90.3,6.24701551305163,2.9355080028842298,0
rbt_1607304,3.7945775475780925,61.95,6.1252260655013595,2.8768759380728874,0
sbt_28279,13.20826823677256,216.3,6.106457807107055,2.87796861548461,0
sbt_20214,13.208260787979697,216.3,6.106454363374802,2.8779689081399713,0
rbt_1607305,5.360190276483563,90.3,5.935980372628531,2.791043531397257,0
rbt_1607285,3.640591990194367,61.95,5.876661808223353,2.7595356585537654,0
rbt_606103,4.419243858873061,76.65,5.7654844864619195,2.710250815017123,0
rbt_3405846,4.412249173275026,76.65,5.756358999706492,2.707313285112543,0
rbt_605825,5.122007614032708,90.3,5.672212197156931,2.667693874679232,0
rbt_606109,3.5085897562485933,61.95,5.663583141644218,2.660779602577954,0
sbt_4580,9.211292041453438,163.8,5.623499414806739,2.6469144767263244,0
rbt_1631852,5.063744358674137,90.3,5.607690319683431,2.6359544101460473,0
rbt_605993,5.0315387647062995,90.3,5.572025210084496,2.6187138129896272,0
rbt_630753,5.001475025561418,90.3,5.538732032736897,2.6052227751496626,0
rbt_621999,4.995799293217826,90.3,5.532446614859165,2.6006269911515494,0
sbt_6049,9.02972768037745,163.8,5.512654261524695,2.5948169627540967,0
rbt_607384,3.30449047843738,61.95,5.334125066081323,2.5062832820804104,0
smt_6110,17.446556407037335,327.6,5.325566668814815,3.051981764915922,0
rbt_1607278,4.079470167091639,76.65,5.322205045129339,2.500800525056276,0
rbt_1628760,4.791895773787526,90.3,5.306639838081424,2.4934045236242643,0
rbt_3433894,4.774777962812378,90.3,5.287683236780042,2.4863181652767996,0
rbt_1607357,4.023406273916461,76.65,5.249062327353504,2.467170048681519,0
smt_24515,16.92141117060657,327.6,5.16526592509358,3.018210170570502,0
smt_6552,16.921019251165713,327.6,5.165146291564626,3.018118970201655,0
smt_6549,16.920501419435308,327.6,5.164988223270851,3.0179985294740987,0
smt_23959,16.920049248394925,327.6,5.164850197922748,3.017893416152706,0
smt_22744,16.919506800907126,327.6,5.164684615661516,3.0177673852351945,0
smt_19175,16.919055653433198,327.6,5.164546902757386,3.0176626236174706,0
smt_19177,16.918541958946175,327.6,5.164390097358417,3.0175434007536626,0
smt_19176,16.918002083211533,327.6,5.16422530012562,3.0174181737235872,0
smt_19164,16.917767018007677,327.6,5.16415354640039,3.017363672272618,0
smt_32311,16.917362541475093,327.6,5.164030079815351,3.017269924508742,0
smt_39119,16.916877392472,327.6,5.163881987934065,3.0171575333448613,0
smt_32312,16.916854613983315,327.6,5.163875034793442,3.0171522583390353,0
smt_32310,16.91683604123275,327.6,5.163869365455661,3.0171479565911867,0
smt_32309,16.916387114944754,327.6,5.163732330569217,3.0170440153924556,0
smt_32314,16.916181869904566,327.6,5.163669679458048,3.016996511863141,0
smt_32313,16.916166285847133,327.6,5.16366492241976,3.016992904860388,0
smt_6802,16.91598757216265,327.6,5.163610370013019,3.0715484797021273,0
smt_24514,16.915426986739465,327.6,5.163439251141472,3.071419522358593,0
smt_24513,16.91484480979643,327.6,5.163261541451901,3.0712856795733177,0
smt_19166,16.914387992279753,327.6,5.163122097765492,3.0711807151674346,0
smt_6414,16.9139420767636,327.6,5.16298598191807,3.0710783050924984,0
smt_18852,16.9134907783895,327.6,5.162848222951618,3.0709747084312657,0
smt_6403,16.912990034080774,327.6,5.162695370598526,3.0708598198343684,0
smt_1832,16.91255472979435,327.6,5.162562493832219,3.070759995557008,0
smt_1831,16.912130644641568,327.6,5.16243304170988,3.070662788798155,0
smt_1829,16.91129805456808,327.6,5.162178893335799,3.0704720751318906,0
smt_1828,16.91069536847703,327.6,5.161994923222537,3.070334129793368,0
smt_6350,16.82404360613953,327.6,5.135544446318537,3.0022719092216392,0
smt_24517,16.82183977609093,327.6,5.134871726523482,3.0019855085141742,0
smt_24520,16.821164375664956,327.6,5.134665560337288,3.0018282366476394,0
smt_19116,16.82084546018724,327.6,5.1345682112903654,3.001754015264486,0
rbt_605806,4.3935788649871625,90.3,4.865535841624765,2.286618327188918,0
rbt_622714,4.32519763680658,90.3,4.789809121601971,2.2523917382604135,0
rbt_1607258,3.618179291432593,76.65,4.720390465013168,2.220085204087508,0
rbt_627328,4.222719736602325,90.3,4.676323074864147,2.201225291147178,0
sbt_25907,10.0167370708454,216.3,4.630946403534628,1.7500604369007837,0
sbt_21361,10.01673023491462,216.3,4.630943243141294,1.7500605827017353,0
sbt_20771,10.01672477675604,216.3,4.630940719720777,1.7500628618418663,0
sbt_5830,7.583018208552358,163.8,4.629437245758459,2.178270514792095,0
smt_37926,15.954886422325554,346.5,4.604584826067981,4.520745895694878,0
smt_37927,15.954099065795832,346.5,4.604357594746271,4.520523622959562,0
smt_37928,15.953303071120786,346.5,4.604127870453329,4.5202989120522155,0
smt_37929,15.952501485270451,346.5,4.603896532545585,4.520072623214004,0
smt_37930,15.951708532133237,346.5,4.603667686041338,4.519848771792697,0
smt_37931,15.95098195209535,346.5,4.603457994832713,4.519643657878921,0
rbt_621168,3.5136777062215465,76.65,4.584054411247941,2.154731706846927,0
rbt_605815,4.132461596091793,90.3,4.5763694308879215,2.1525375682492665,0
rbt_1107330,4.126961863908894,90.3,4.570278919057468,2.151555533235855,0
rbt_621171,2.8210194517240845,61.95,4.553703715454535,2.1394276275527253,0
rbt_3422597,4.11186553441319,90.3,4.5535609461940085,2.141980207164507,0
rbt_606127,2.800167475446367,61.95,4.520044351003013,2.123650976861193,0
rbt_635966,2.784646222874372,61.95,4.494989867432399,2.1121180851397794,0
rbt_1124041,4.056275792330825,90.3,4.491999770023063,2.113082909865432,0
rbt_605921,3.3440899842604113,76.65,4.362804937065116,2.0510790209217533,0
sbt_14007,7.098810307319223,163.8,4.333828026446412,2.039080095308967,0
rbt_627336,3.8739634469289106,90.3,4.290103484971109,2.0158350541476464,0
rbt_1627321,3.856890410210955,90.3,4.271196467564734,2.0077272734057403,0
rbt_1607355,3.845885120786292,90.3,4.259008993118817,2.001989686310552,0
rbt_605902,2.636088765596445,61.95,4.255187676507578,1.999650717978051,0
sbt_35173,5.360189868566838,128.1,4.184379288498703,1.967456586661955,0
rbt_1607358,3.202401171387038,76.65,4.1779532568650195,1.9641267862897556,0
sbt_21952,9.02972678703599,216.3,4.174630969503463,1.9650065180715075,0
sbt_20840,6.802249970871277,163.8,4.152777759994675,1.9549987345493525,0
sbt_6273,6.790264816291978,163.8,4.145460815807068,1.950180072333109,0
rbt_3405838,3.6913943884013993,90.3,4.087922910743521,1.9242477593332998,0
rbt_1107341,2.5165749687813577,61.95,4.0622679076373815,1.9114810350870073,0
rbt_622273,2.3459240251335127,57.75,4.062206104127294,1.912261289955972,0
rbt_638617,2.5081294697196057,61.95,4.048635140790323,1.904990712146936,0
smt_6536,11.597255637806885,286.65,4.045789512578715,2.3912831627903013,0
smt_6703,11.596667037966846,286.65,4.045584175114895,2.3911488291053193,0
smt_6514,11.5960897985856,286.65,4.045382800832234,2.391017257823984,0
smt_6984,11.596001681839192,286.65,4.045352060645105,2.39099718811586,0
smt_5854,11.595105088215202,286.65,4.045039277242353,2.3907931997969167,0
smt_5855,11.59443326482262,286.65,4.044804906618741,2.39064061672105,0
smt_5657,11.593882576121286,286.65,4.044612794739678,2.3905157161859916,0
smt_21743,11.59330196189598,286.65,4.044410243117384,2.390384195060764,0
smt_22741,11.592706990421695,286.65,4.044202682861223,2.390249599465583,0
smt_6098,11.592234266327822,286.65,4.044037769519561,2.3901427874067775,0
smt_19120,11.591686030324706,286.65,4.043846513282647,2.3900190560070325,0
smt_22740,11.591143365635007,286.65,4.0436572006401565,2.3898967330299006,0
rbt_605828,3.6470861412649835,90.3,4.038855084457346,1.9013468099107322,0
smt_22738,11.57677211512244,286.65,4.038643682233539,2.38437317715144,0
smt_6754,11.576277749151368,286.65,4.038471218960883,2.3842605003624358,0
smt_6567,11.575775164649023,286.65,4.038295888592019,2.384146076934794,0
smt_6746,11.575275519619026,286.65,4.038121583680107,2.38403244932443,0
smt_6812,11.57478446003624,286.65,4.037950273865774,2.383920897325646,0
rbt_1607292,3.5758236169793194,90.3,3.9599375603314724,1.8621210599172278,0
rbt_1635060,2.4234550687245098,61.95,3.9119532989903303,1.8395892283931639,0
rbt_1626490,3.531606818551643,90.3,3.9109710061479985,2.962152033238688,0
sbt_37156,6.3872398872176985,163.8,3.899413850560255,1.8322081171412188,0
rbt_605867,3.5205207566020245,90.3,3.898694082615753,1.8336073440814935,0
sbt_4615,6.30812272068487,163.8,3.851112772090885,1.8138085557959902,0
sbt_3373,6.308121476985871,163.8,3.8511120128118868,1.8138077333775968,0
sbt_20793,6.308120335676537,163.8,3.8511113160418415,1.8138069848228033,0
sbt_4010,6.308118566907021,163.8,3.8511102362069725,1.8138058358106104,0
sbt_28804,6.308116961205671,163.8,3.8511092559253175,1.813804803796956,0
sbt_4118,10.976888885180033,286.65,3.8293699233141583,1.399740795362277,0
rbt_605812,3.431389618915271,90.3,3.799988503782138,1.7886342900753567,0
rbt_632613,3.427537854008815,90.3,3.7957229833984663,1.7854442060557743,0
rbt_622713,3.4108269434807816,90.3,3.777216991673069,1.7749900154728662,0
rbt_606120,2.329009450073194,61.95,3.7594987087541463,1.7659381262627374,0
sbt_26269,8.066668745237973,216.3,3.729389156374467,1.7538135517221007,0
rbt_1132019,3.325675885178438,90.3,3.6829190312053575,1.7319339451106412,0
rbt_605863,3.311274904595378,90.3,3.6669711014345276,1.7250243948625934,0
rbt_634166,2.77741552891311,76.65,3.6235036254574164,1.7027998745175201,0
rbt_1138614,2.23293127684382,61.95,3.6044088407487003,1.6950143182325867,0
smt_7052,5.87365697230406,163.8,3.585871167462796,1.940465580110258,0
rbt_605803,3.2103466425906815,90.3,3.5552011545854723,1.6713486837148224,0
rbt_605834,3.19027138109697,90.3,3.5329694142823587,1.6639797235636762,0
smt_29484,5.765249527979732,163.8,3.5196883565199824,1.7438601241409482,0
smt_22951,5.765235937380602,163.8,3.519680059450917,1.7438517699942544,0
rbt_605904,2.180161498623722,61.95,3.519227600683974,1.6524812254497927,0
smt_19381,5.763889439735767,163.8,3.5188580218167074,1.7430252779300972,0
smt_18804,5.7631884380836045,163.8,3.5184300598801004,1.7425959188550346,0
smt_19380,5.76238510438927,163.8,3.517939624169273,1.7421046623273284,0
smt_5349,5.761741467686112,163.8,3.5175466835690545,1.7417116677955706,0
smt_18803,5.761087729687651,163.8,3.5171475761218867,1.7413130575109974,0
smt_13454,5.760420201360956,163.8,3.516740049670913,1.7409066146874619,0
smt_19377,5.7596267018278375,163.8,3.5162556177215123,1.740424230965545,0
smt_29411,5.758629114431922,163.8,3.515646590007278,1.7398189550241625,0
smt_8954,5.758016189630581,163.8,3.515272399041869,1.7394477221686129,0
smt_5584,5.757301700700012,163.8,3.5148362031135605,1.73901560453397,0
rbt_605810,2.6897590910136526,76.65,3.5091442805135715,1.6493824976222762,0
rbt_605864,3.1658932006661615,90.3,3.5059725367288608,1.6493116606671225,0
rbt_609682,2.66892547832634,76.65,3.481964094359217,1.638567895525866,0
rbt_605835,3.1178522089191643,90.3,3.452770995480802,1.6261856215166672,0
rbt_622703,2.137868427675647,61.95,3.450957913923562,2.6142890422644425,0
sbt_14006,5.643712406867381,163.8,3.445489869882406,1.6204035877568315,0
sbt_27416,7.345361062479794,216.3,3.395913574886636,1.5971916621024178,0
sbt_15213,7.345361011714175,216.3,3.3959135514166316,1.597191651139059,0
rbt_606128,2.587543845842658,76.65,3.375791057850825,1.5865170621339624,0
rbt_1607257,3.022709193013105,90.3,3.347407744200559,1.5736062174779686,0
rbt_607385,3.0205178987093118,90.3,3.34498106169359,1.5736294434357472,0
rbt_3405845,3.01042904125381,90.3,3.333808462075094,1.5697189000842817,0
rbt_633056,3.0011432462743612,90.3,3.323525189672604,1.562674384158309,0
rbt_606141,2.997370377391729,90.3,3.3193470403009186,1.5626961723611237,0
rbt_623015,2.9904987777001546,90.3,3.3117372953490083,2.5085094538108654,0
sbt_34389,4.222718468722049,128.1,3.2964234728509365,2.5369523832193317,0
smt_25186,5.398713425739965,163.8,3.2959178423320905,1.7991722180941985,0
sbt_37537,7.1285091627206985,216.3,3.2956584201205263,1.2902494003692904,0
sbt_37545,7.128500371872215,216.3,3.295654355927977,1.2902500618869752,0
sbt_37546,7.128483373220846,216.3,3.2956464970970165,1.2902488453064598,0
sbt_37539,7.120686142276407,216.3,3.2920416746539094,1.8123686460872401,0
sbt_37538,7.1206805200225896,216.3,3.292039075368742,1.812369208189537,0
rbt_1606000,2.930661277122769,90.3,3.2454720676885596,1.5260063021337293,0
rbt_605982,2.929404496589342,90.3,3.2440802841520955,1.5264562234057442,0
rbt_1629639,2.914217866226814,90.3,3.2272623103286975,1.5162928022882545,0
sbt_3952,5.278018705703404,163.8,3.2222336420655697,1.5169173875906925,0
sbt_4120,5.278017237577178,163.8,3.222232745773612,1.51691643755744,0
sbt_20855,5.278015806893894,163.8,3.2222318723405947,1.5169155187336765,0
sbt_20854,5.278014448557038,163.8,3.222231043075115,1.5169146525014654,0
rbt_635963,1.9922999561365653,61.95,3.2159805587353754,1.5106055296957503,0
rbt_626481,2.8711500157201955,90.3,3.1795681237211464,1.4947392376831232,0
rbt_1607306,2.418904248956564,76.65,3.155778537451486,1.4840302394930083,0
rbt_605820,2.4091610733586672,76.65,3.143067284225267,1.4786708673294457,0
rbt_605901,2.8375012040786953,90.3,3.1423047664215895,1.4765561109601506,0
rbt_3405847,2.8356855904681746,90.3,3.140294120119795,1.4785507543792902,0
rbt_1607289,2.3910197253803145,76.65,3.1193995112593793,1.4659776118040149,0
sbt_34000,6.736351345614447,216.3,3.1143556845189306,1.4638741473714012,0
sbt_20828,5.057409449428495,163.8,3.0875515564276523,1.4512871215681902,0
rbt_1609690,2.745625824316858,90.3,3.040560159819333,1.42868708196936,0
smt_6512,8.677632011057147,286.65,3.0272569374000167,1.8059258393503461,0
smt_6425,8.677240714689653,286.65,3.0271204307307356,1.8058485655402807,0
smt_6930,8.676641307143536,286.65,3.0269113229176825,1.8057293015750504,0
sbt_34382,3.8675913614149233,128.1,3.0191970034464664,1.418879004931833,0
rbt_1625170,2.726088068610373,90.3,3.0189236640203463,1.4186670173624192,0
rbt_605821,3.859798776570126,128.1,3.0131137990399113,1.4159313140148237,0
sbt_35105,3.8458847509463316,128.1,3.0022519523390567,1.4112383333709666,0
rbt_605988,2.6889288738215105,90.3,2.977772839226479,1.4016062194082126,0
smt_22686,8.489223501614196,286.65,2.9615292173780556,1.8527573490263185,0
smt_6239,8.488763309352306,286.65,2.9613686758598665,1.8526629131809091,0
smt_23961,8.488314128875036,286.65,2.9612119758852384,1.8525709253862648,0
smt_29407,8.487857217518872,286.65,2.9610525789355915,1.8524773942227883,0
smt_6278,8.487447999292867,286.65,2.9609098200917034,1.8523939994726615,0
smt_6630,8.48697089074427,286.65,2.9607433772001643,1.8522967657433556,0
smt_19070,8.486491525012017,286.65,2.9605761468731964,1.8521992403836123,0
smt_6639,8.486012458078221,286.65,2.960409020784309,1.8521018650271295,0
smt_19117,8.485565289339903,286.65,2.960253022619886,1.852011125099631,0
smt_21514,8.481132890546286,286.65,2.958706747094466,1.8466027741405264,0
smt_5615,8.480669664441518,286.65,2.9585451471974595,1.8465058384636066,0
smt_18742,8.480308920363873,286.65,2.9584192989233817,1.846430615476879,0
smt_6270,8.479742370616451,286.65,2.9582216537995647,1.8463124099428354,0
smt_5967,8.479301731961812,286.65,2.9580679337037545,1.8462207657596112,0
smt_5772,8.478781948184865,286.65,2.957886603239095,1.8461127727436955,0
smt_6158,8.478267886938115,286.65,2.957707269121966,1.846006098217587,0
smt_6263,8.477822701512505,286.65,2.95755196285104,1.8459140582846274,0
smt_6384,8.477270616002443,286.65,2.9573593636847875,1.8457999658477673,0
smt_22684,8.476730435718189,286.65,2.957170917745749,1.8456884278813896,0
smt_22685,8.47628970310242,286.65,2.957017164870895,1.8455977243165445,0
smt_29447,8.475827637850093,286.65,2.95685596994596,1.8455028096289012,0
smt_19065,8.475332647285564,286.65,2.9566832887791956,1.8454013793149973,0
smt_24385,8.474773357862361,286.65,2.9564881764738744,1.8452868609333777,0
smt_29448,8.47321168314937,286.65,2.955943374550626,1.8329237840262875,0
smt_6824,8.47276009115176,286.65,2.955785833299062,1.8328268412653712,0
smt_6855,8.472275874613052,286.65,2.9556169107319215,1.8327230608503617,0
smt_19062,8.47171041246132,286.65,2.9554196450240084,1.8326020850729445,0
smt_7054,8.471260965082442,286.65,2.9552628519387554,1.832506097255,0
smt_6446,8.470801758266255,286.65,2.955102654200682,1.8324081787955802,0
smt_39006,8.470331281069363,286.65,2.9549385247058657,1.8323080184198934,0
smt_39008,8.469906157852575,286.65,2.9547902172867873,1.8322176542123614,0
smt_39007,8.469888240611716,286.65,2.954783966723083,1.832213848393659,0
smt_6122,8.46948026301269,286.65,2.954641640681211,1.8321272598988922,0
smt_18741,8.46896542947937,286.65,2.954462037146126,1.8320181810800056,0
smt_5938,8.468488458024451,286.65,2.954295642080744,1.8319173493557532,0
smt_5946,8.467937688958257,286.65,2.954103502165797,1.8318011110414372,0
rbt_605804,1.823361136201838,61.95,2.9432786702208844,1.3832718409289075,0
sbt_6048,4.770511008512918,163.8,2.9123998830970192,1.3709639587682043,0
rbt_605829,2.6257471567473454,90.3,2.9078041602960636,1.367207944707518,0
sbt_15045,6.266306950222667,216.3,2.8970443597885653,1.3628889781825546,0
rbt_1107342,1.780505684818825,61.95,2.8741011861482244,1.3515755976216537,0
rbt_1607316,2.594855946337956,90.3,2.8735946249589768,2.1777683580519436,0
rbt_3405987,1.7516525021695049,61.95,2.827526234333341,1.331541770482332,0
sbt_22669,6.113906041739739,216.3,2.8265862421358015,1.3290134814828332,0
rbt_1132012,2.543057765105166,90.3,2.8162322980123657,1.3237207003421512,0
rbt_1607268,2.1523149316973083,76.65,2.807977732155653,1.319599772597335,0
rbt_605823,2.532600051222057,90.3,2.804651219515013,1.3191920983933356,0
sbt_35588,6.064546185514615,216.3,2.803766151416835,1.3177576139859293,0
sbt_21281,4.537451029488409,163.8,2.770116623619297,1.3015679699471878,0
rbt_605989,2.469741573452802,90.3,2.7350405021625717,1.2854820394441409,0
rbt_1121173,2.4684221538611424,90.3,2.733579350898275,1.2860407125826978,0
rbt_605807,2.4591182628729804,90.3,2.723276038619026,1.2813659581247483,0
smt_29426,5.874386824503248,216.3,2.7158515138711268,1.4698076916688672,0
rbt_606130,2.0713611576432207,76.65,2.702362893207072,1.2698247844215647,0
sbt_3491,4.419240584848458,163.8,2.6979490749990584,1.2682563512068785,0
rbt_637399,1.6618710692537617,61.95,2.6826005960512695,1.2606382243311187,0
sbt_21191,4.382567375892668,163.8,2.675560058542532,1.2579915279451621,0
sbt_26310,4.3251972262623735,163.8,2.640535547168726,1.241702881112227,0
rbt_637705,2.371388166043044,90.3,2.6261220000476677,1.9893898298621,0
rbt_1105833,2.367694377069473,90.3,2.6220314253261057,1.2326739278766623,0
rbt_1607276,2.352831775453192,90.3,2.605572287323579,1.2243243087057731,0
rbt_1607319,2.3201649745240016,90.3,2.569396428044299,1.825251501775429,0
rbt_622709,2.3192645288328984,90.3,2.5683992567363214,1.2077187412065236,0
rbt_1607328,2.314790127901425,90.3,2.5634442169450997,1.2055605113790984,0
rbt_607366,2.3114801787115953,90.3,2.5597787139663293,1.2029793250106098,0
sbt_21953,4.126962155013171,163.8,2.519512915148456,1.1861139749209733,0
sbt_21849,4.12696208852268,163.8,2.51951287455597,1.1861139555883524,0
sbt_21968,4.126962007965356,163.8,2.519512825375675,1.186113932214684,0
smt_6074,7.185387666689826,286.65,2.506676318398684,1.48279257305288,0
smt_6082,7.184913356477443,286.65,2.506510851727697,1.4827109473507791,0
...